Version 4
SHEET 1 880 680
WIRE 176 -272 96 -272
WIRE 96 -240 96 -272
WIRE 176 -240 176 -272
WIRE 96 -160 96 -176
WIRE -896 -128 -928 -128
WIRE -288 -128 -896 -128
WIRE 16 -128 -288 -128
WIRE -896 -80 -896 -128
WIRE 192 -80 96 -80
WIRE 224 -80 192 -80
WIRE 320 -80 304 -80
WIRE 400 -80 384 -80
WIRE 448 -80 400 -80
WIRE 96 -48 96 -80
WIRE 192 -32 192 -80
WIRE -688 0 -752 0
WIRE -608 0 -688 0
WIRE -560 0 -608 0
WIRE -448 0 -480 0
WIRE -352 0 -384 0
WIRE -160 0 -352 0
WIRE -32 0 -64 0
WIRE -16 0 -32 0
WIRE 16 0 16 -112
WIRE 16 0 -16 0
WIRE -688 16 -688 0
WIRE -352 16 -352 0
WIRE -32 16 -32 0
WIRE 16 16 16 0
WIRE -928 32 -928 0
WIRE -608 32 -608 0
WIRE 96 64 96 32
WIRE 192 64 192 32
WIRE -288 112 -288 -128
WIRE -112 112 -112 80
WIRE -112 112 -288 112
WIRE -32 112 -32 80
WIRE 16 112 16 80
WIRE -688 128 -688 96
WIRE -608 128 -608 96
WIRE -352 128 -352 96
WIRE -96 224 -96 80
WIRE 400 224 400 -80
WIRE 400 224 -96 224
FLAG 192 64 0
FLAG 16 112 0
FLAG -16 0 w
FLAG -352 128 0
FLAG -608 128 0
FLAG 448 -80 EPSP
IOPIN 448 -80 BiDir
FLAG -928 -128 AP
IOPIN -928 -128 In
FLAG 176 -240 0
FLAG -928 32 0
FLAG 96 64 0
FLAG -32 112 0
FLAG -688 128 0
SYMBOL cap 176 -32 R0
WINDOW 3 24 56 Invisible 2
SYMATTR Value 1n
SYMATTR InstName Ce
SYMBOL res 320 -96 R90
WINDOW 0 68 62 VBottom 2
WINDOW 3 32 56 Invisible 2
SYMATTR InstName Re
SYMATTR Value 1G
SYMBOL cap -48 16 R0
WINDOW 0 -26 58 Left 2
WINDOW 3 24 56 Invisible 2
SYMATTR InstName Cw
SYMATTR Value 1n
SYMBOL ampar 48 -128 R90
WINDOW 0 -26 13 VRight 2
SYMATTR InstName AMPAR
SYMATTR SpiceLine Gain=1e-4
SYMBOL cap 384 -96 R90
WINDOW 0 -6 23 VBottom 2
WINDOW 3 32 32 Invisible 2
SYMATTR InstName Ch1
SYMATTR Value 10n
SYMBOL res -336 112 R180
WINDOW 0 38 65 Left 2
WINDOW 3 36 40 Invisible 2
SYMATTR InstName Rh
SYMATTR Value 10G
SYMBOL cap -624 32 R0
WINDOW 3 24 56 Invisible 2
SYMATTR Value 1n
SYMATTR InstName Cs
SYMBOL cap -384 -16 R90
WINDOW 0 -8 29 VBottom 2
WINDOW 3 32 32 Invisible 2
SYMATTR InstName Ch2
SYMATTR Value 10n
SYMBOL nmdar -112 48 R0
WINDOW 0 -52 -71 Left 2
SYMATTR InstName NMDAR
SYMATTR SpiceLine Gain=1e-9*{eps}
SYMBOL voltage 96 -144 R180
WINDOW 0 -21 58 Left 2
WINDOW 3 24 16 Invisible 2
SYMATTR InstName Na+
SYMATTR Value 1V
SYMBOL pionch -896 -48 R180
WINDOW 0 -57 22 Left 2
SYMATTR InstName Ca.V
SYMATTR SpiceLine Gain = 1e-8
SYMBOL voltage -848 0 R270
WINDOW 0 -49 26 VRight 2
WINDOW 3 24 16 Invisible 2
WINDOW 123 0 0 Left 2
WINDOW 39 0 0 Left 2
SYMATTR InstName Ca2+
SYMATTR Value 1V
SYMBOL res -576 16 R270
WINDOW 0 -36 60 VTop 2
WINDOW 3 62 68 Invisible 2
SYMATTR InstName Rs
SYMATTR Value 1G
SYMBOL res 80 -64 R0
WINDOW 0 28 85 Left 2
WINDOW 3 36 76 Invisible 2
SYMATTR InstName Rz1
SYMATTR Value 100MEG
SYMBOL diode 32 80 R180
WINDOW 0 24 64 Invisible 2
WINDOW 3 24 0 Invisible 2
WINDOW -1 -6 2 Left 2
SYMATTR InstName D1
SYMATTR Value Rectifier
SYMBOL res -704 0 R0
WINDOW 0 24 89 Left 2
WINDOW 3 36 76 Invisible 2
SYMATTR InstName Rz2
SYMATTR Value 100MEG
TEXT 208 112 Left 2 ;LP filter
TEXT -584 176 Left 2 ;LP filter
TEXT -184 160 Left 2 ;Sample and integrate
TEXT -200 96 Left 2 ;Strobe
TEXT 144 200 Left 2 ;Error feedback
TEXT -560 -368 Left 2 ;Excitatory synapse
TEXT -64 -40 Left 2 ;Weight
TEXT -584 -64 Left 2 ;Calcium path
TEXT -576 -152 Left 2 ;Glutamate path
TEXT 0 376 Left 2 !.model Rectifier D(Ron=1e-3)
TEXT -728 -280 Right 2 ;Presynaptic\nneuron
TEXT -224 -280 Left 2 ;Postsynaptic\nneuron
TEXT -552 -280 Left 2 ;Synaptic cleft
LINE Normal -240 224 -240 -288 2
LINE Normal -272 224 -272 224 2
LINE Normal -720 224 -720 -288 2
RECTANGLE Normal -464 -32 -640 160 2
RECTANGLE Normal 160 -128 320 96 2
RECTANGLE Normal 48 -64 -208 144 2
