Version 4
SHEET 1 880 964
WIRE -160 -240 -224 -240
WIRE -64 -240 -160 -240
WIRE -32 -240 -64 -240
WIRE 80 -240 48 -240
WIRE 160 -240 144 -240
WIRE -224 -224 -224 -240
WIRE -160 -208 -160 -240
WIRE -64 -208 -64 -240
WIRE -160 -96 -160 -128
WIRE -64 -96 -64 -144
WIRE -304 -80 -368 -80
WIRE -224 -32 -224 -48
FLAG -224 -32 0
FLAG -64 -96 0
FLAG -368 -80 AP
IOPIN -368 -80 In
FLAG 160 -240 IPSP
IOPIN 160 -240 Out
FLAG -160 -96 0
SYMBOL voltage -224 -240 R0
WINDOW 123 0 0 Left 2
WINDOW 39 0 0 Left 2
WINDOW 0 -14 60 Left 2
WINDOW 3 29 23 Invisible 2
SYMATTR InstName Cl-
SYMATTR Value -1
SYMBOL cap -80 -208 R0
WINDOW 3 24 56 Invisible 2
SYMATTR Value 1n
SYMATTR InstName Ci
SYMBOL gabar -272 -80 R90
WINDOW 0 -65 -7 VRight 2
SYMATTR InstName GABAAR
SYMATTR SpiceLine Gain=1e-8
SYMBOL cap 144 -256 R90
WINDOW 0 65 29 VBottom 2
WINDOW 3 32 32 Invisible 2
SYMATTR InstName Ch
SYMATTR Value 10n
SYMBOL res 64 -256 R90
WINDOW 0 62 48 VBottom 2
WINDOW 3 32 56 Invisible 2
SYMATTR InstName Ri
SYMATTR Value 1G
SYMBOL res -176 -224 R0
WINDOW 0 34 81 Left 2
WINDOW 3 36 76 Invisible 2
SYMATTR InstName Rz
SYMATTR Value 100MEG
TEXT -56 -48 Left 2 ;LP filter
TEXT -416 -480 Left 2 ;Inhibitory synapse
TEXT -336 -352 Right 2 ;Presynaptic\nneuron
TEXT -304 -352 Left 2 ;Postsynaptic\nneuron
LINE Normal -320 -16 -320 -368 2
LINE Normal -336 -16 -336 -16 2
RECTANGLE Normal 64 -272 -96 -64 2
