Version 4
SHEET 1 2216 680
WIRE 256 32 160 32
WIRE 160 80 160 32
WIRE 160 192 160 160
FLAG 160 192 0
FLAG 256 32 AP
IOPIN 256 32 Out
SYMBOL bv 160 64 R0
WINDOW 3 30 107 Left 2
SYMATTR Value V={Vmax} * (rand(time/{spikeWidth} + 1e6 * randomSeed) < {meanSpikeFreq} * {spikeWidth} * (1 + {modulationDepth} * sin(2*pi* time*(if(time<{switchTime},0,df)+{modulationFreq}))))
SYMATTR InstName B1
TEXT 184 240 Left 2 !.param spikeWidth=0.0005 modulationDepth=0.67 modulationFreq=1 meanSpikeFreq=120 Vmax=0.1 randomSeed=0 df=0 switchTime=150
TEXT 184 296 Left 2 ;NB: Max simulation step should be smaller than spikeWidth!
